iidm/iidm-serde/src/test/resources/V1_18/eurostag-tutorial-only-active-groups-three-winding.xml
<?xml version="1.0" encoding="UTF-8"?>
<iidm:network xmlns:iidm="http://www.powsybl.org/schema/iidm/1_18" id="sim1" caseDate="2013-01-15T18:45:00.000+01:00" forecastDistance="0" sourceFormat="test" minimumValidationLevel="STEADY_STATE_HYPOTHESIS">
    <iidm:substation id="P1" country="FR" tso="RTE" geographicalTags="A">
        <iidm:voltageLevel id="VLGEN" nominalV="24.0" topologyKind="BUS_BREAKER">
            <iidm:busBreakerTopology>
                <iidm:bus id="NGEN"/>
            </iidm:busBreakerTopology>
            <iidm:generator id="GEN" energySource="OTHER" minP="-9999.99" maxP="9999.99" targetP="607.0" localTargetV="24.5" localTargetQ="301.0" bus="NGEN" connectableBus="NGEN">
                <iidm:minMaxReactiveLimits minQ="-9999.99" maxQ="9999.99"/>
                <iidm:voltageRegulation mode="VOLTAGE" regulating="true"/>
            </iidm:generator>
        </iidm:voltageLevel>
        <iidm:voltageLevel id="VLHV1" nominalV="380.0" topologyKind="BUS_BREAKER">
            <iidm:busBreakerTopology>
                <iidm:bus id="NHV1"/>
            </iidm:busBreakerTopology>
        </iidm:voltageLevel>
        <iidm:voltageLevel id="V2" nominalV="150.0" topologyKind="BUS_BREAKER">
            <iidm:busBreakerTopology>
                <iidm:bus id="N2"/>
            </iidm:busBreakerTopology>
        </iidm:voltageLevel>
        <iidm:twoWindingsTransformer id="NGEN_NHV1" r="0.26658461538461536" x="11.104492831516762" ratedU1="24.0" ratedU2="400.0" voltageLevelId1="VLGEN" bus1="NGEN" connectableBus1="NGEN" voltageLevelId2="VLHV1" bus2="NHV1" connectableBus2="NHV1"/>
        <iidm:threeWindingsTransformer id="NGEN_V2_NHV1" r1="0.001" x1="1.0E-6" ratedU1="400.0" r2="0.1" x2="1.0E-5" ratedU2="150.0" r3="0.01" x3="1.0E-4" ratedU3="24.0" ratedU0="400.0" voltageLevelId1="VLHV1" bus1="NHV1" connectableBus1="NHV1" voltageLevelId2="V2" bus2="N2" connectableBus2="N2" voltageLevelId3="VLGEN" bus3="NGEN" connectableBus3="NGEN" selectedOperationalLimitsGroupIds1="activated_1_1" selectedOperationalLimitsGroupIds2="activated_2_1,activated_2_2" selectedOperationalLimitsGroupIds3="activated_3_1">
            <iidm:operationalLimitsGroup1 id="activated_1_1">
                <iidm:currentLimits detectionKind="HIGH" permanentLimit="100.0">
                    <iidm:temporaryLimit name="40'" acceptableDuration="2400" value="500.0"/>
                </iidm:currentLimits>
            </iidm:operationalLimitsGroup1>
            <iidm:operationalLimitsGroup2 id="activated_2_1">
                <iidm:apparentPowerLimits detectionKind="HIGH" permanentLimit="75.0"/>
            </iidm:operationalLimitsGroup2>
            <iidm:operationalLimitsGroup2 id="activated_2_2">
                <iidm:apparentPowerLimits detectionKind="HIGH" permanentLimit="80.0"/>
            </iidm:operationalLimitsGroup2>
            <iidm:operationalLimitsGroup3 id="activated_3_1">
                <iidm:activePowerLimits detectionKind="HIGH" permanentLimit="150.0">
                    <iidm:temporaryLimit name="30'" acceptableDuration="1800" value="400.0"/>
                </iidm:activePowerLimits>
            </iidm:operationalLimitsGroup3>
        </iidm:threeWindingsTransformer>
    </iidm:substation>
    <iidm:substation id="P2" country="FR" tso="RTE" geographicalTags="B">
        <iidm:voltageLevel id="VLHV2" nominalV="380.0" topologyKind="BUS_BREAKER">
            <iidm:busBreakerTopology>
                <iidm:bus id="NHV2"/>
            </iidm:busBreakerTopology>
        </iidm:voltageLevel>
        <iidm:voltageLevel id="VLLOAD" nominalV="150.0" topologyKind="BUS_BREAKER">
            <iidm:busBreakerTopology>
                <iidm:bus id="NLOAD"/>
            </iidm:busBreakerTopology>
            <iidm:load id="LOAD" loadType="UNDEFINED" p0="600.0" q0="200.0" bus="NLOAD" connectableBus="NLOAD"/>
        </iidm:voltageLevel>
    </iidm:substation>
    <iidm:line id="NHV1_NHV2_1" r="3.0" x="33.0" b1="1.93E-4" b2="1.93E-4" voltageLevelId1="VLHV1" bus1="NHV1" connectableBus1="NHV1" voltageLevelId2="VLHV2" bus2="NHV2" connectableBus2="NHV2"/>
    <iidm:line id="NHV1_NHV2_2" r="3.0" x="33.0" b1="1.93E-4" b2="1.93E-4" voltageLevelId1="VLHV1" bus1="NHV1" connectableBus1="NHV1" voltageLevelId2="VLHV2" bus2="NHV2" connectableBus2="NHV2"/>
</iidm:network>
